!This soil file is created by DSSAT translator tool on Fri Nov 07 01:51:47 EST 2014.
*SOILS: General DSSAT Soil Input File; 

!The ACE ID is N/A.
!This soil data is used for the experiment of ITHY8001_1.
!
*IBSG910085  IBSNAT      -99     172 Patencheru
@SITE        COUNTRY          LAT     LONG SCS FAMILY
 Patancheru  India             -99     -99 ALFISOL Udic Rhodustalf, Patencheru Series
@ SCOM  SALB  SLU1  SLDR  SLRO  SLNF  SLPF  SMHB  SMPX  SMKE
   -99  0.13   6.0  0.30  80.0  1.00  1.00 IB001 IB001 IB001
@  SLB  SLMH  SLLL  SDUL  SSAT  SRGF  SSKS  SBDM  SLOC  SLCL  SLSI  SLCF  SLNI  SLHW  SLHB  SCEC  SADC
    10   -99 0.080 0.220 0.310 1.000   -99  1.61  0.85   -99   -99   -99   -99     7   -99   -99   -99
    22   -99 0.090 0.220 0.310 0.900   -99  1.61  0.55   -99   -99   -99   -99     7   -99   -99   -99
    52   -99 0.125 0.245 0.315 0.700   -99  1.62  0.51   -99   -99   -99   -99     7   -99   -99   -99
    82   -99 0.150 0.230 0.290 0.500   -99  1.64  0.63   -99   -99   -99   -99     7   -99   -99   -99
   112   -99 0.160 0.240 0.310 0.100   -99  1.64  0.10   -99   -99   -99   -99     7   -99   -99   -99
   142   -99 0.173 0.240 0.310 0.050   -99  1.64  0.10   -99   -99   -99   -99     7   -99   -99   -99
   172   -99 0.193 0.250 0.320 0.030   -99  1.64  0.10   -99   -99   -99   -99     7   -99   -99   -99

