*MODEL INPUT FILE            B     9     1     9   999     0
*FILES              
MODEL          MZCER045
FILEX          GHWA0401.MZX                                                                                 
FILEA          GHWA0401.MZA                                                                                 
FILET          GHWA0401.MZT                                                                                 
SPECIES        MZCER045.SPE C:\DSSAT45\GENOTYPE\                                                            
ECOTYPE        MZCER045.ECO C:\DSSAT45\GENOTYPE\                                                            
CULTIVAR       MZCER045.CUL C:\DSSAT45\GENOTYPE\                                                            
PESTS          MZCER045.PST C:\DSSAT45\PEST\                                                                
SOILS          GH.SOL                                                                                       
WEATHER        GHWA0302.WTH                                                                                 
OUTPUT         OVERVIEW
*SIMULATION CONTROL 
                   1     1     S 2003283  5242 Maize (2004)             
                   Y     Y     N     Y     N     N     N     N     M
                   M     M     E     R     S     C     R     1     P     S     2
                   R     N     R     N     R
                   N     Y     Y     1     Y     Y     Y     Y     Y     N     Y     N     Y
!AUTOMATIC MANAGEM  
               2004001 2004001   40.  100.   30.   40.   10.
                  0.    0.    0. GS000 IR001   0.0 1.000
                 30.   50.   25. FE001 GS000
                100.     0    0.
                     0 2000001  100.    0.
*EXP.DETAILS        
  1GHWA0401 MZ ON-STATION NXP (EXPERIMENT NO.2) 9 TRT                      
*TREATMENTS         
  9 1 1 0 N120 P90                 
*CULTIVARS          
   MZ GH0010 OBATAMPA        
*FIELDS             
   UFWA0001 GHWA0302   0.0  -99. -99    -99. 100.0 -99   LS      90. GHWA040008
          -2.38200        10.02000    390.00               1.0  100.   1.0 -99.0 FH301     0
*INITIAL CONDITIONS 
   MZ    2003283  1373     0  1.00  1.00   0.0  5213  1.10  0.10    0.    0.
      5. 0.150 0.600  3.00
     15. 0.150 0.600  3.00
     20. 0.150 0.600  3.00
     30. 0.190 0.600  3.00
     40. 0.190 0.600  3.00
     50. 0.170 0.600  3.00
     60. 0.170 0.600  3.00
     90. 0.070 0.600  3.00
*PLANTING DETAILS   
   2004169     -99   5.0   5.0     S     R   75.    0.   5.0  -99.  -99. -99.0 -99.0   0.0
*IRRIGATION         
   1.000    0.    0.    0. GS000 IR001   0.0
*FERTILIZERS        
   2004167 FE013 AP004   10.    0.   39.  -99.  -99.  -99.   -99
   2004187 FE005 AP007    5.   60.    0.  -99.  -99.  -99.   -99
   2004197 FE005 AP007    5.   60.    0.  -99.  -99.  -99.   -99
*RESIDUES           
*CHEMICALS          
*TILLAGE            
*ENVIRONMENT        
*HARVEST            
   2004294 GS006 H     A      100.    0.
*SOIL               
 GHWA040008  unknown     LS      90. 90 unknown                                        
 Wa          Ghana        10.000  -2.496 unknown                                           
 BN     0.13   6.0  0.60   73.  1.00  1.00 IB001 SA002 IB001 -99  
    5.       0.085 0.155 0.383 1.000  2.59  1.54 0.490   7.5   8.3   4.3 0.060  6.30-99.00  1.00-99.00
   15.       0.085 0.155 0.383 1.000  2.59  1.54 0.450   7.5   8.3   4.3 0.060  6.30-99.00  1.00-99.00
   20.       0.085 0.155 0.383 1.000  2.59  1.54 0.450   7.5   8.3   4.3 0.060  6.30-99.00  1.00-99.00
   30.       0.122 0.190 0.362 0.549  2.59  1.57 0.360  14.5   8.2   6.4 0.060  6.30-99.00  1.00-99.00
   40.       0.122 0.190 0.362 0.549  2.59  1.57 0.360  14.5   8.2   6.4 0.060  6.30-99.00  1.00-99.00
   50.       0.124 0.170 0.204 0.368 0.120  1.52 0.350  40.9  10.7  49.2 0.040  5.90-99.00  0.90-99.00
   60.       0.124 0.170 0.204 0.368 0.120  1.52 0.350  40.9  10.7  49.2 0.040  5.90-99.00  0.90-99.00
   90.       0.059 0.079 0.089 0.000 .0600  1.38 0.340  52.9  16.9  80.7 0.040  6.00-99.00  0.80-99.00
                    
    5.  5.80 -99.0 -99.0 -99.0 -99.0 -99.0 -99.0 -99.0 -99.0 -99.0  0.10   0.3   0.5 -99.0 -99.0   1.5 0.470
   15.  1.40 -99.0 -99.0 -99.0 -99.0 -99.0 -99.0 -99.0 -99.0 -99.0  0.10   0.3   0.5 -99.0 -99.0   1.5 0.430
   20.  1.40 -99.0 -99.0 -99.0 -99.0 -99.0 -99.0 -99.0 -99.0 -99.0  0.10   0.3   0.5 -99.0 -99.0   1.5 0.430
   30.  2.00 -99.0 -99.0 -99.0 -99.0 -99.0 -99.0 -99.0 -99.0 -99.0  0.10   0.5   0.5 -99.0 -99.0   1.2 0.340
   40.  2.00 -99.0 -99.0 -99.0 -99.0 -99.0 -99.0 -99.0 -99.0 -99.0  0.10   0.5   0.5 -99.0 -99.0   1.2 0.340
   50.  2.20 -99.0 -99.0 -99.0 -99.0 -99.0 -99.0 -99.0 -99.0 -99.0  0.10   0.7   0.5 -99.0 -99.0   1.6 0.340
   60.  2.20 -99.0 -99.0 -99.0 -99.0 -99.0 -99.0 -99.0 -99.0 -99.0  0.10   0.7   0.5 -99.0 -99.0   1.6 0.340
   90.  2.30 -99.0 -99.0 -99.0 -99.0 -99.0 -99.0 -99.0 -99.0 -99.0  0.10   0.9   0.5 -99.0 -99.0   1.9 0.330
*CULTIVAR           
GH0010 OBATAMPA         IB0001  280.0 0.000 750.0 540.0  7.50 40.00
