*EXP.DETAILS: GHWA0401MZ                                                             

*FILES
@N  EXP.DATA    AFILE        ADIR
  9 EXP         GHWA0401.MZA                                                                                 
@N  SPECIES     SPFILE       SPDIR
  9 SPE         MZCER045.SPE C:\DSSAT45\GENOTYPE\                                                            
@N  ECOTYPE     EFILE        EDIR
  9 ECO         MZCER045.ECO C:\DSSAT45\GENOTYPE\                                                            
@N  CULTIVAR    CFILE        CDIR
  9 CUL         MZCER045.CUL C:\DSSAT45\GENOTYPE\                                                            
@N  SOIL        SFILE        SDIR
  9 SOIL        GH.SOL                                                                                       
@N  WEATHER     WFILE        WDIR
  9 WEATH       GHWA0302.WTH                                                                                 

*SIMULATION CONTROL
@N  GENERAL     NYERS NREPS START   SDATE RSEED SNAME.................... MODEL...
  9 GE              1     1     S 2003283  5242 Maize (2004)              MZCER045
@N  OPTIONS     WATER NITRO SYMBI PHOSP POTAS DISES  CHEM  TILL   CO2
  9 OP              Y     Y     N     Y     N     N     N     N     M
@N  METHODS     WTHER INCON LIGHT EVAPO INFIL PHOTO HYDRO NSWIT SOMDY MESEV MESOL
  9 ME              M     M     E     R     S     C     R     1     P     S     2
@N  MANAGEMENT  PLANT IRRIG FERTI RESID HARVS
  9 MA              R     N     R     N     R
@N  OUTPUTS     FNAME OVVEW SUMRY FROPT GROUT CAOUT WAOUT NIOUT MIOUT DIOUT  LONG CHOUT OPOUT
  9 OU              N     Y     Y     1     Y     Y     Y     Y     Y     N     Y     N     Y

!AUTOMATIC MANAGEM
@N  PLANTING      PFRST   PLAST PH2OL PH2OU PH2OD PSTMX PSTMN
  9 PL          2004001 2004001   40.  100.   30.   40.   10.
@N  IRRIGATION  IMDEP ITHRL ITHRU IROFF IMETH IRAMT IREFF
  9 IR             0.    0.    0. GS000 IR001   0.0 1.000
@N  NITROGEN    NMDEP NMTHR NAMNT NCODE NAOFF
  9 NI            30.   50.   25. FE001 GS000
@N  RESIDUES    RIPCN RTIME RIDEP
  9 RE           100.     0    0.
@N  HARVEST     HFRST   HLAST HPCNP HRCNR
  9 HA              0 2000001  100.    0.

*TREATMENTS
@N   R O C TNAME....................  CU  FL  SA  IC  MP  MI  MF  MR  MC  MT  ME  MH  SM
  9  1 1 0 N120 P90                    1   8   4   8   1   0   8   0   0   0   0   1   9

*CULTIVARS
@C  CR INGENO CNAME
  1 MZ GH0010 OBATAMPA        

*FIELDS
@L  ID_FIELD WSTA....  FLSA  FLOB  FLDT  FLDD  FLDS  FLST SLTX   SLDP ID_SOIL
  8 UFWA0001 GHWA0302   0.0  -99. -99    -99.  100. -99   LS      90. GHWA040008
@L             XCRD            YCRD      ELEV              AREA  SLEN  FLWR  SLAS PRMGT
  8        -2.38200        10.02000    390.00               1.0  100.   1.0 -99.0 FH301     0

*INITIAL CONDITIONS
@C  PCR     ICDAT  ICRT  ICND  ICRN  ICRE  ICWD ICRES ICREN ICREP ICRIP ICRID
  8 MZ    2003283  1373     0  1.00  1.00   0.0  5213  1.10  0.10    0.    0.
@C   ICBL  SH2O  SNH4  SNO3
  8    5. 0.150   0.6   3.0
  8   15. 0.150   0.6   3.0
  8   20. 0.150   0.6   3.0
  8   30. 0.190   0.6   3.0
  8   40. 0.190   0.6   3.0
  8   50. 0.170   0.6   3.0
  8   60. 0.170   0.6   3.0
  8   90. 0.070   0.6   3.0

*PLANTING DETAILS
@P    PDATE   EDATE  PPOP  PPOE  PLME  PLDS  PLRS  PLRD  PLDP  PLWT  PAGE  PENV  PLPH  SPRL
  1 2004169     -99   5.0   5.0     S     R   75.    0.   5.0  -99.  -99. -99.0 -99.0   0.0

*IRRIGATION
@I   IEFF  IDEP  ITHR  IEPT  IOFF  IAME  IAMT
  0 1.000    0.    0.    0. GS000 IR001   0.0
@I    IDATE  IROP IRVAL

*FERTILIZERS
@F    FDATE  FMCD  FACD  FDEP  FAMN  FAMP  FAMK  FAMC  FAMO  FOCD
  8 2004167 FE013 AP004   10.    0.   39.  -99.  -99.  -99.   -99
  8 2004187 FE005 AP007    5.   60.    0.  -99.  -99.  -99.   -99
  8 2004197 FE005 AP007    5.   60.    0.  -99.  -99.  -99.   -99

*RESIDUES
@R    RDATE  RCOD  RAMT  RESN  RESP  RESK  RINP  RDEP  RMET

*CHEMICALS
@C    CDATE CHCOD CHAMT  CHME CHDEP   CHT

*TILLAGE
@T    TDATE TIMPL  TDEP

*ENVIRONMENT
@E    ODATE  EDAY  ERAD  EMAX  EMIN ERAIN  ECO2  EDEW EWIND

*HARVEST
@H    HDATE  HSTG  HCOM HSIZE   HPC  HBPC
  1 2004294 GS006 H     A      100.    0.
