!This soil file is created by DSSAT translator tool on Mon Oct 13 10:39:18 EDT 2014.
*SOILS: Ghana Soils; Ghana Soils; Ghana Soils; Ghana Soils; Ghana Soils; Ghana Soils; Ghana Soils; Ghana Soils; 

!The ACE ID is N/A.
!This soil data is used for the experiment of GHWA0401_2.
!
*GHWA040002  unknown     LS       90 90 unknown
@SITE        COUNTRY          LAT     LONG SCS FAMILY
 Wa          Ghana          10.005  -2.496 unknown
@ SCOM  SALB  SLU1  SLDR  SLRO  SLNF  SLPF  SMHB  SMPX  SMKE
    BN  0.13   6.0  0.60  73.0  1.00  1.00 IB001 SA002 IB001
@  SLB  SLMH  SLLL  SDUL  SSAT  SRGF  SSKS  SBDM  SLOC  SLCL  SLSI  SLCF  SLNI  SLHW  SLHB  SCEC  SADC
     5     A 0.085 0.155 0.383 1.000  2.59  1.54   .49   7.5   8.3   4.3 0.060   6.3   -99   1.0   -99
    20     A 0.085 0.155 0.383 1.000  2.59  1.54   .44   7.5   8.3   4.3 0.060   6.3   -99   1.0   -99
    40     B 0.122 0.190 0.362 0.549  2.59  1.57   .35  14.5   8.2   6.4 0.060   6.3   -99   1.0   -99
    60     B 0.124 0.170 0.204 0.368  0.12  1.52   .35  40.9  10.7  49.2 0.040   5.9   -99   0.9   -99
    90     B 0.059 0.079 0.088 0.000  0.06  1.38   .34  52.9  16.9  80.7 0.040   6.0   -99   0.8   -99
@  SLB  SLPX  SLPT  SLPO CACO3  SLAL  SLFE  SLMN  SLBS  SLPA  SLPB  SLKE  SLMG  SLNA  SLSU  SLEC  SLCA
     5   6.7   -99   -99   -99   -99   -99   -99   -99   -99   -99    .1    .3    .5   -99   -99   1.5
    20   3.8   -99   -99   -99   -99   -99   -99   -99   -99   -99    .1    .3    .5   -99   -99   1.5
    40   2.4   -99   -99   -99   -99   -99   -99   -99   -99   -99    .1    .5    .5   -99   -99   1.2
    60   2.3   -99   -99   -99   -99   -99   -99   -99   -99   -99    .1    .7    .5   -99   -99   1.6
    90   2.3   -99   -99   -99   -99   -99   -99   -99   -99   -99    .1    .9    .5   -99   -99   1.9

!The ACE ID is N/A.
!This soil data is used for the experiment of GHWA0401_1.
!
*GHWA040001  unknown     LS       90 90 unknown
@SITE        COUNTRY          LAT     LONG SCS FAMILY
 Wa          Ghana          10.005  -2.496 unknown
@ SCOM  SALB  SLU1  SLDR  SLRO  SLNF  SLPF  SMHB  SMPX  SMKE
    BN  0.13   6.0  0.60  73.0  1.00  1.00 IB001 SA002 IB001
@  SLB  SLMH  SLLL  SDUL  SSAT  SRGF  SSKS  SBDM  SLOC  SLCL  SLSI  SLCF  SLNI  SLHW  SLHB  SCEC  SADC
     5     A 0.085 0.155 0.383 1.000  2.59  1.54   .48   7.5   8.3   4.3 0.060   6.3   -99   1.0   -99
    20     A 0.085 0.155 0.383 1.000  2.59  1.54   .44   7.5   8.3   4.3 0.060   6.3   -99   1.0   -99
    40     B 0.122 0.190 0.362 0.549  2.59  1.57   .35  14.5   8.2   6.4 0.060   6.3   -99   1.0   -99
    60     B 0.124 0.170 0.204 0.368  0.12  1.52   .35  40.9  10.7  49.2 0.040   5.9   -99   0.9   -99
    90     B 0.059 0.079 0.088 0.000  0.06  1.38   .34  52.9  16.9  80.7 0.040   6.0   -99   0.8   -99
@  SLB  SLPX  SLPT  SLPO CACO3  SLAL  SLFE  SLMN  SLBS  SLPA  SLPB  SLKE  SLMG  SLNA  SLSU  SLEC  SLCA
     5   2.2   -99   -99   -99   -99   -99   -99   -99   -99   -99    .1    .3    .5   -99   -99   1.5
    20   2.3   -99   -99   -99   -99   -99   -99   -99   -99   -99    .1    .3    .5   -99   -99   1.5
    40   2.3   -99   -99   -99   -99   -99   -99   -99   -99   -99    .1    .5    .5   -99   -99   1.2
    60   2.3   -99   -99   -99   -99   -99   -99   -99   -99   -99    .1    .7    .5   -99   -99   1.6
    90   2.3   -99   -99   -99   -99   -99   -99   -99   -99   -99    .1    .9    .5   -99   -99   1.9

!The ACE ID is N/A.
!This soil data is used for the experiment of GHWA0401_4.
!
*GHWA040004  unknown     LS       90 90 unknown
@SITE        COUNTRY          LAT     LONG SCS FAMILY
 Wa          Ghana          10.005  -2.496 unknown
@ SCOM  SALB  SLU1  SLDR  SLRO  SLNF  SLPF  SMHB  SMPX  SMKE
    BN  0.13   6.0  0.60  73.0  1.00  1.00 IB001 SA002 IB001
@  SLB  SLMH  SLLL  SDUL  SSAT  SRGF  SSKS  SBDM  SLOC  SLCL  SLSI  SLCF  SLNI  SLHW  SLHB  SCEC  SADC
     5     A 0.085 0.155 0.383 1.000  2.59  1.54   .48   7.5   8.3   4.3 0.060   6.3   -99   1.0   -99
    20     A 0.085 0.155 0.383 1.000  2.59  1.54   .44   7.5   8.3   4.3 0.060   6.3   -99   1.0   -99
    40     B 0.122 0.190 0.362 0.549  2.59  1.57   .35  14.5   8.2   6.4 0.060   6.3   -99   1.0   -99
    60     B 0.124 0.170 0.204 0.368  0.12  1.52   .35  40.9  10.7  49.2 0.040   5.9   -99   0.9   -99
    90     B 0.059 0.079 0.088 0.000  0.06  1.38   .34  52.9  16.9  80.7 0.040   6.0   -99   0.8   -99
@  SLB  SLPX  SLPT  SLPO CACO3  SLAL  SLFE  SLMN  SLBS  SLPA  SLPB  SLKE  SLMG  SLNA  SLSU  SLEC  SLCA
     5   2.3   -99   -99   -99   -99   -99   -99   -99   -99   -99    .1    .3    .5   -99   -99   1.5
    20   1.9   -99   -99   -99   -99   -99   -99   -99   -99   -99    .1    .3    .5   -99   -99   1.5
    40   2.4   -99   -99   -99   -99   -99   -99   -99   -99   -99    .1    .5    .5   -99   -99   1.2
    60   2.3   -99   -99   -99   -99   -99   -99   -99   -99   -99    .1    .7    .5   -99   -99   1.6
    90   2.3   -99   -99   -99   -99   -99   -99   -99   -99   -99    .1    .9    .5   -99   -99   1.9

!The ACE ID is N/A.
!This soil data is used for the experiment of GHWA0401_3.
!
*GHWA040003  unknown     LS       90 90 unknown
@SITE        COUNTRY          LAT     LONG SCS FAMILY
 Wa          Ghana          10.005  -2.496 unknown
@ SCOM  SALB  SLU1  SLDR  SLRO  SLNF  SLPF  SMHB  SMPX  SMKE
    BN  0.13   6.0  0.60  73.0  1.00  1.00 IB001 SA002 IB001
@  SLB  SLMH  SLLL  SDUL  SSAT  SRGF  SSKS  SBDM  SLOC  SLCL  SLSI  SLCF  SLNI  SLHW  SLHB  SCEC  SADC
     5     A 0.085 0.155 0.383 1.000  2.59  1.54   .49   7.5   8.3   4.3 0.060   6.3   -99   1.0   -99
    20     A 0.085 0.155 0.383 1.000  2.59  1.54   .44   7.5   8.3   4.3 0.060   6.3   -99   1.0   -99
    40     B 0.122 0.190 0.362 0.549  2.59  1.57   .35  14.5   8.2   6.4 0.060   6.3   -99   1.0   -99
    60     B 0.124 0.170 0.204 0.368  0.12  1.52   .35  40.9  10.7  49.2 0.040   5.9   -99   0.9   -99
    90     B 0.059 0.079 0.088 0.000  0.06  1.38   .34  52.9  16.9  80.7 0.040   6.0   -99   0.8   -99
@  SLB  SLPX  SLPT  SLPO CACO3  SLAL  SLFE  SLMN  SLBS  SLPA  SLPB  SLKE  SLMG  SLNA  SLSU  SLEC  SLCA
     5   7.4   -99   -99   -99   -99   -99   -99   -99   -99   -99    .1    .3    .5   -99   -99   1.5
    20   4.6   -99   -99   -99   -99   -99   -99   -99   -99   -99    .1    .3    .5   -99   -99   1.5
    40   2.4   -99   -99   -99   -99   -99   -99   -99   -99   -99    .1    .5    .5   -99   -99   1.2
    60   2.3   -99   -99   -99   -99   -99   -99   -99   -99   -99    .1    .7    .5   -99   -99   1.6
    90   2.3   -99   -99   -99   -99   -99   -99   -99   -99   -99    .1    .9    .5   -99   -99   1.9

!The ACE ID is N/A.
!This soil data is used for the experiment of GHWA0401_6.
!
*GHWA040006  unknown     LS       90 90 unknown
@SITE        COUNTRY          LAT     LONG SCS FAMILY
 Wa          Ghana          10.005  -2.496 unknown
@ SCOM  SALB  SLU1  SLDR  SLRO  SLNF  SLPF  SMHB  SMPX  SMKE
    BN  0.13   6.0  0.60  73.0  1.00  1.00 IB001 SA002 IB001
@  SLB  SLMH  SLLL  SDUL  SSAT  SRGF  SSKS  SBDM  SLOC  SLCL  SLSI  SLCF  SLNI  SLHW  SLHB  SCEC  SADC
     5     A 0.085 0.155 0.383 1.000  2.59  1.54   .49   7.5   8.3   4.3 0.060   6.3   -99   1.0   -99
    20     A 0.085 0.155 0.383 1.000  2.59  1.54   .45   7.5   8.3   4.3 0.060   6.3   -99   1.0   -99
    40     B 0.122 0.190 0.362 0.549  2.59  1.57   .35  14.5   8.2   6.4 0.060   6.3   -99   1.0   -99
    60     B 0.124 0.170 0.204 0.368  0.12  1.52   .35  40.9  10.7  49.2 0.040   5.9   -99   0.9   -99
    90     B 0.059 0.079 0.088 0.000  0.06  1.38   .34  52.9  16.9  80.7 0.040   6.0   -99   0.8   -99
@  SLB  SLPX  SLPT  SLPO CACO3  SLAL  SLFE  SLMN  SLBS  SLPA  SLPB  SLKE  SLMG  SLNA  SLSU  SLEC  SLCA
     5   6.6   -99   -99   -99   -99   -99   -99   -99   -99   -99    .1    .3    .5   -99   -99   1.5
    20   1.9   -99   -99   -99   -99   -99   -99   -99   -99   -99    .1    .3    .5   -99   -99   1.5
    40   2.2   -99   -99   -99   -99   -99   -99   -99   -99   -99    .1    .5    .5   -99   -99   1.2
    60   2.3   -99   -99   -99   -99   -99   -99   -99   -99   -99    .1    .7    .5   -99   -99   1.6
    90   2.3   -99   -99   -99   -99   -99   -99   -99   -99   -99    .1    .9    .5   -99   -99   1.9

!The ACE ID is N/A.
!This soil data is used for the experiment of GHWA0401_5.
!
*GHWA040005  unknown     LS       90 90 unknown
@SITE        COUNTRY          LAT     LONG SCS FAMILY
 Wa          Ghana          10.005  -2.496 unknown
@ SCOM  SALB  SLU1  SLDR  SLRO  SLNF  SLPF  SMHB  SMPX  SMKE
    BN  0.13   6.0  0.60  73.0  1.00  1.00 IB001 SA002 IB001
@  SLB  SLMH  SLLL  SDUL  SSAT  SRGF  SSKS  SBDM  SLOC  SLCL  SLSI  SLCF  SLNI  SLHW  SLHB  SCEC  SADC
     5     A 0.085 0.155 0.383 1.000  2.59  1.54   .49   7.5   8.3   4.3 0.060   6.3   -99   1.0   -99
    20     A 0.085 0.155 0.383 1.000  2.59  1.54   .44   7.5   8.3   4.3 0.060   6.3   -99   1.0   -99
    40     B 0.122 0.190 0.362 0.549  2.59  1.57   .35  14.5   8.2   6.4 0.060   6.3   -99   1.0   -99
    60     B 0.124 0.170 0.204 0.368  0.12  1.52   .35  40.9  10.7  49.2 0.040   5.9   -99   0.9   -99
    90     B 0.059 0.079 0.088 0.000  0.06  1.38   .34  52.9  16.9  80.7 0.040   6.0   -99   0.8   -99
@  SLB  SLPX  SLPT  SLPO CACO3  SLAL  SLFE  SLMN  SLBS  SLPA  SLPB  SLKE  SLMG  SLNA  SLSU  SLEC  SLCA
     5   5.4   -99   -99   -99   -99   -99   -99   -99   -99   -99    .1    .3    .5   -99   -99   1.5
    20   1.2   -99   -99   -99   -99   -99   -99   -99   -99   -99    .1    .3    .5   -99   -99   1.5
    40   2.2   -99   -99   -99   -99   -99   -99   -99   -99   -99    .1    .5    .5   -99   -99   1.2
    60   2.3   -99   -99   -99   -99   -99   -99   -99   -99   -99    .1    .7    .5   -99   -99   1.6
    90   2.3   -99   -99   -99   -99   -99   -99   -99   -99   -99    .1    .9    .5   -99   -99   1.9

!The ACE ID is N/A.
!This soil data is used for the experiment of GHWA0401_9.
!
*GHWA040008  unknown     LS       90 90 unknown
@SITE        COUNTRY          LAT     LONG SCS FAMILY
 Wa          Ghana          10.005  -2.496 unknown
@ SCOM  SALB  SLU1  SLDR  SLRO  SLNF  SLPF  SMHB  SMPX  SMKE
    BN  0.13   6.0  0.60  73.0  1.00  1.00 IB001 SA002 IB001
@  SLB  SLMH  SLLL  SDUL  SSAT  SRGF  SSKS  SBDM  SLOC  SLCL  SLSI  SLCF  SLNI  SLHW  SLHB  SCEC  SADC
     5     A 0.085 0.155 0.383 1.000  2.59  1.54   .49   7.5   8.3   4.3 0.060   6.3   -99   1.0   -99
    20     A 0.085 0.155 0.383 1.000  2.59  1.54   .45   7.5   8.3   4.3 0.060   6.3   -99   1.0   -99
    40     B 0.122 0.190 0.362 0.549  2.59  1.57   .36  14.5   8.2   6.4 0.060   6.3   -99   1.0   -99
    60     B 0.124 0.170 0.204 0.368  0.12  1.52   .35  40.9  10.7  49.2 0.040   5.9   -99   0.9   -99
    90     B 0.059 0.079 0.088 0.000  0.06  1.38   .34  52.9  16.9  80.7 0.040   6.0   -99   0.8   -99
@  SLB  SLPX  SLPT  SLPO CACO3  SLAL  SLFE  SLMN  SLBS  SLPA  SLPB  SLKE  SLMG  SLNA  SLSU  SLEC  SLCA
     5   5.8   -99   -99   -99   -99   -99   -99   -99   -99   -99    .1    .3    .5   -99   -99   1.5
    20   1.4   -99   -99   -99   -99   -99   -99   -99   -99   -99    .1    .3    .5   -99   -99   1.5
    40     2   -99   -99   -99   -99   -99   -99   -99   -99   -99    .1    .5    .5   -99   -99   1.2
    60   2.2   -99   -99   -99   -99   -99   -99   -99   -99   -99    .1    .7    .5   -99   -99   1.6
    90   2.3   -99   -99   -99   -99   -99   -99   -99   -99   -99    .1    .9    .5   -99   -99   1.9

!The ACE ID is N/A.
!This soil data is used for the experiment of GHWA0401_8.
!
*GHWA040007  unknown     LS       90 90 unknown
@SITE        COUNTRY          LAT     LONG SCS FAMILY
 Wa          Ghana          10.005  -2.496 unknown
@ SCOM  SALB  SLU1  SLDR  SLRO  SLNF  SLPF  SMHB  SMPX  SMKE
    BN  0.13   6.0  0.60  73.0  1.00  1.00 IB001 SA002 IB001
@  SLB  SLMH  SLLL  SDUL  SSAT  SRGF  SSKS  SBDM  SLOC  SLCL  SLSI  SLCF  SLNI  SLHW  SLHB  SCEC  SADC
     5     A 0.085 0.155 0.383 1.000  2.59  1.54   .49   7.5   8.3   4.3 0.060   6.3   -99   1.0   -99
    20     A 0.085 0.155 0.383 1.000  2.59  1.54   .45   7.5   8.3   4.3 0.060   6.3   -99   1.0   -99
    40     B 0.122 0.190 0.362 0.549  2.59  1.57   .36  14.5   8.2   6.4 0.060   6.3   -99   1.0   -99
    60     B 0.124 0.170 0.204 0.368  0.12  1.52   .35  40.9  10.7  49.2 0.040   5.9   -99   0.9   -99
    90     B 0.059 0.079 0.088 0.000  0.06  1.38   .34  52.9  16.9  80.7 0.040   6.0   -99   0.8   -99
@  SLB  SLPX  SLPT  SLPO CACO3  SLAL  SLFE  SLMN  SLBS  SLPA  SLPB  SLKE  SLMG  SLNA  SLSU  SLEC  SLCA
     5   3.4   -99   -99   -99   -99   -99   -99   -99   -99   -99    .1    .3    .5   -99   -99   1.5
    20    .9   -99   -99   -99   -99   -99   -99   -99   -99   -99    .1    .3    .5   -99   -99   1.5
    40   1.8   -99   -99   -99   -99   -99   -99   -99   -99   -99    .1    .5    .5   -99   -99   1.2
    60   2.2   -99   -99   -99   -99   -99   -99   -99   -99   -99    .1    .7    .5   -99   -99   1.6
    90   2.3   -99   -99   -99   -99   -99   -99   -99   -99   -99    .1    .9    .5   -99   -99   1.9

