*MODEL INPUT FILE            B     6     1     6   999     0
*FILES              
MODEL          CSCER045
FILEX          KSAS8101.WHX                                                                                 
FILEA          KSAS8101.WHA                                                                                 
FILET          KSAS8101.WHT                                                                                 
SPECIES        WHCER045.SPE C:\DSSAT45\GENOTYPE\                                                            
ECOTYPE        WHCER045.ECO C:\DSSAT45\GENOTYPE\                                                            
CULTIVAR       WHCER045.CUL C:\DSSAT45\GENOTYPE\                                                            
PESTS          WHCER045.PST C:\DSSAT45\PEST\                                                                
SOILS          IB.SOL                                                                                       
WEATHER        KSAS8102.WTH                                                                                 
OUTPUT         OVERVIEW
*SIMULATION CONTROL 
                   1     1     S 1981279  2150 N x IR ASHLAND,KS        
                   Y     Y     N     N     N     N     N     N     M
                   M     M     E     R     S     C     R     1     G     S     2
                   R     R     R     N     M
                   N     Y     Y     1     Y     N     Y     Y     N     N     Y     N     N
!AUTOMATIC MANAGEM  
               1981282 1981296   40.  100.   30.   40.   10.
                 30.   50.  100. GS000 IR001  10.0 1.000
                 30.   50.   25. FE001 GS000
                100.     1   20.
                     0 1982289  100.    0.
*EXP.DETAILS        
  1KSAS8101 WH N RESPONSE,KANSAS STATE  3FE(N)*2IR  (DSSAT3)               
*TREATMENTS         
  6 1 0 0 IRRIGATED 180 KG N/HA SPL
*CULTIVARS          
   WH IB0488 NEWTON          
*FIELDS             
   KSAS0001 KSAS8102   0.0    0. DR000    0. 100.0 00000 -99    180. IBWH980018
         -99.75000        37.18000      0.00               1.0  100.   1.0   0.0   -99   -99
*INITIAL CONDITIONS 
   WH    1981279  1200     0  1.00  1.00   0.0  6500  1.14  0.00  100.   15.
      5. 0.205  3.40  9.80
     15. 0.205  3.40  9.80
     30. 0.170  3.20  7.30
     45. 0.092  2.50  5.10
     60. 0.092  2.50  5.10
     90. 0.065  2.20  4.70
    120. 0.066  2.70  4.30
    150. 0.066  2.70  4.30
    180. 0.066  2.70  4.30
*PLANTING DETAILS   
   1981289     -99 162.0 162.0     S     R   16.    0.   5.5  -99.  -99. -99.0 -99.0   0.0
*IRRIGATION         
   1.000   30.   75.  -99. GS000 IR001   0.0
   1982096 IR001  65.0
   1982110 IR001  78.0
   1982117 IR001  70.0
*FERTILIZERS        
   1981289 FE001 AP001   15.   90.    0.    0.    0.    0.   -99
   1982056 FE001 AP001    1.   90.    0.    0.    0.    0.   -99
*RESIDUES           
*CHEMICALS          
*TILLAGE            
*ENVIRONMENT        
*HARVEST            
*SOIL               
 IBWH980018  SCS         -99    180. Haynie                                            
 Manhattan   USA          -0.009  -0.099 Coarse-silty, mixed,calcareous,mesic Typ Udifluven
 -99    0.14   5.0  0.60   60.  1.00  1.00 IB001 IB001 IB001 -99  
    5.       0.072 0.225 0.275 1.000  -99.  1.15 0.610 -99.0 -99.0 -99.0  -9.0  7.00-99.00-99.00-99.00
   15.       0.072 0.225 0.275 1.000  -99.  1.15 0.610 -99.0 -99.0 -99.0  -9.0  7.00-99.00-99.00-99.00
   30.       0.070 0.240 0.290 0.700  -99.  1.16 0.610 -99.0 -99.0 -99.0  -9.0  7.00-99.00-99.00-99.00
   45.       0.040 0.154 0.194 0.200  -99.  1.21 0.590 -99.0 -99.0 -99.0  -9.0  7.00-99.00-99.00-99.00
   60.       0.040 0.154 0.194 0.200  -99.  1.21 0.590 -99.0 -99.0 -99.0  -9.0  7.00-99.00-99.00-99.00
   90.       0.032 0.091 0.141 0.050  -99.  1.23 0.290 -99.0 -99.0 -99.0  -9.0  7.00-99.00-99.00-99.00
  120.       0.032 0.087 0.137 0.030  -99.  1.31 0.240 -99.0 -99.0 -99.0  -9.0  7.00-99.00-99.00-99.00
  150.       0.032 0.087 0.137 0.010  -99.  1.31 0.200 -99.0 -99.0 -99.0  -9.0  7.00-99.00-99.00-99.00
  180.       0.032 0.087 0.137 0.010  -99.  1.31 0.200 -99.0 -99.0 -99.0  -9.0  7.00-99.00-99.00-99.00
                    
    5.-99.00 -99.0 -99.0 -99.0 -99.0 -99.0 -99.0 -99.0 -99.0 -99.0-99.00 -99.0 -99.0 -99.0 -99.0 -99.0  -99.
   15.-99.00 -99.0 -99.0 -99.0 -99.0 -99.0 -99.0 -99.0 -99.0 -99.0-99.00 -99.0 -99.0 -99.0 -99.0 -99.0  -99.
   30.-99.00 -99.0 -99.0 -99.0 -99.0 -99.0 -99.0 -99.0 -99.0 -99.0-99.00 -99.0 -99.0 -99.0 -99.0 -99.0  -99.
   45.-99.00 -99.0 -99.0 -99.0 -99.0 -99.0 -99.0 -99.0 -99.0 -99.0-99.00 -99.0 -99.0 -99.0 -99.0 -99.0  -99.
   60.-99.00 -99.0 -99.0 -99.0 -99.0 -99.0 -99.0 -99.0 -99.0 -99.0-99.00 -99.0 -99.0 -99.0 -99.0 -99.0  -99.
   90.-99.00 -99.0 -99.0 -99.0 -99.0 -99.0 -99.0 -99.0 -99.0 -99.0-99.00 -99.0 -99.0 -99.0 -99.0 -99.0  -99.
  120.-99.00 -99.0 -99.0 -99.0 -99.0 -99.0 -99.0 -99.0 -99.0 -99.0-99.00 -99.0 -99.0 -99.0 -99.0 -99.0  -99.
  150.-99.00 -99.0 -99.0 -99.0 -99.0 -99.0 -99.0 -99.0 -99.0 -99.0-99.00 -99.0 -99.0 -99.0 -99.0 -99.0  -99.
  180.-99.00 -99.0 -99.0 -99.0 -99.0 -99.0 -99.0 -99.0 -99.0 -99.0-99.00 -99.0 -99.0 -99.0 -99.0 -99.0  -99.
*CULTIVAR           
