!This soil file is created by DSSAT translator tool on Thu Dec 04 01:36:02 EST 2014.
*SOILS: General DSSAT Soil Input File; 

!The ACE ID is N/A.
!This soil data is used for the experiment of KSAS8101_1.
!
*IBWH980018  SCS         -99     180 Haynie
@SITE        COUNTRY          LAT     LONG SCS FAMILY
 Manhattan   USA               -99     -99 Coarse-silty, mixed,calcareous,mesic Typ Udifluven
@ SCOM  SALB  SLU1  SLDR  SLRO  SLNF  SLPF  SMHB  SMPX  SMKE
   -99  0.14   5.0  0.60  60.0  1.00  1.00 IB001 IB001 IB001
@  SLB  SLMH  SLLL  SDUL  SSAT  SRGF  SSKS  SBDM  SLOC  SLCL  SLSI  SLCF  SLNI  SLHW  SLHB  SCEC  SADC
    15   -99 0.072 0.225 0.275 1.000   -99  1.15  0.61   -99   -99   -99   -99     7   -99   -99   -99
    30   -99 0.070 0.240 0.290 0.700   -99  1.16  0.61   -99   -99   -99   -99     7   -99   -99   -99
    60   -99 0.040 0.154 0.194 0.200   -99  1.21  0.59   -99   -99   -99   -99     7   -99   -99   -99
    90   -99 0.032 0.091 0.141 0.050   -99  1.23  0.29   -99   -99   -99   -99     7   -99   -99   -99
   120   -99 0.032 0.087 0.137 0.030   -99  1.31  0.24   -99   -99   -99   -99     7   -99   -99   -99
   150   -99 0.032 0.087 0.137 0.010   -99  1.31  0.20   -99   -99   -99   -99     7   -99   -99   -99
   180   -99 0.032 0.087 0.137 0.010   -99  1.31  0.20   -99   -99   -99   -99     7   -99   -99   -99

